# DRN package for MODFLOW-NWT generated by Flopy 3.3.6
     34800         0
     34800         0 # stress period 1
         1         1         1            8.73       181518.75
         1         1         2            8.27       181518.75
         1         1         3            8.06       181518.75
         1         1         4            7.63       181518.75
         1         1         5            6.98       181518.75
         1         1         6            6.67       181518.75
         1         1         7            6.05       181518.75
         1         1         8            6.17       181518.75
         1         1         9            5.65       181518.75
         1         1        10            8.81       181518.75
         1         1        11            5.26       181518.75
         1         1        12            4.41       181518.75
         1         1        13            4.41       181518.75
         1         1        14             4.4       181518.75
         1         1        15             4.4       181518.75
         1         1        16             3.4       181518.75
         1         1        17             3.4       181518.75
         1         1        18             3.4       181518.75
         1         1        19            3.91       181518.75
         1         1        20             4.4       181518.75
         1         1        21            7.28       181518.75
         1         1        22            8.44       181518.75
         1         1        23           11.55       181518.75
         1         1        24           13.14       181518.75
         1         1        25           14.53       181518.75
         1         1        26           15.21       181518.75
         1         1        27            16.4       181518.75
         1         1        28           15.97       181518.75
         1         1        29           16.12       181518.75
         1         1        30           16.71       181518.75
         1         1        31           16.54       181518.75
         1         1        32           16.31       181518.75
         1         1        33           16.19       181518.75
         1         1        34           16.69       181518.75
         1         1        35           17.55       181518.75
         1         1        36           18.51       181518.75
         1         1        37           19.62       181518.75
         1         1        38           20.31       181518.75
         1         1        39           20.63       181518.75
         1         1        40           20.51       181518.75
         1         1        41           19.61       181518.75
         1         1        42           18.53       181518.75
         1         1        43           17.15       181518.75
         1         1        44           14.53       181518.75
         1         1        45           15.93       181518.75
         1         1        46           15.93       181518.75
         1         1        47           19.19       181518.75
         1         1        48           19.02       181518.75
         1         1        49            17.6       181518.75
         1         1        50           16.22       181518.75
         1         1        51            16.5       181518.75
         1         1        52           17.72       181518.75
         1         1        53           19.12       181518.75
         1         1        54           19.25       181518.75
         1         1        55           19.85       181518.75
         1         1        56           21.17       181518.75
         1         1        57            21.2       181518.75
         1         1        58           19.87       181518.75
         1         1        59           18.77       181518.75
         1         1        60           15.77       181518.75
         1         1        61           11.96       181518.75
         1         1        62            8.89       181518.75
         1         1        63           11.73       181518.75
         1         1        64           10.07       181518.75
         1         1        65            8.89       181518.75
         1         1        66            7.21       181518.75
         1         1        67            7.17       181518.75
         1         1        68            6.88       181518.75
         1         1        69            7.55       181518.75
         1         1        70            8.93       181518.75
         1         1        71           20.14       181518.75
         1         1        72            29.2       181518.75
         1         1        73            32.0       181518.75
         1         1        74            35.0       181518.75
         1         1        75            36.7       181518.75
         1         1        76            38.0       181518.75
         1         1        77            37.0       181518.75
         1         1        78            37.0       181518.75
         1         1        79            37.6       181518.75
         1         1        80            38.4       181518.75
         1         1        81            41.5       181518.75
         1         1        82            40.8       181518.75
         1         1        83            40.3       181518.75
         1         1        84            40.2       181518.75
         1         1        85            40.1       181518.75
         1         1        86            39.3       181518.75
         1         1        87            38.8       181518.75
         1         1        88            37.9       181518.75
         1         1        89            36.5       181518.75
         1         1        90            33.5       181518.75
         1         1        91            33.3       181518.75
         1         1        92            35.5       181518.75
         1         1        93            36.0       181518.75
         1         1        94            35.7       181518.75
         1         1        95            33.0       181518.75
         1         1        96            30.8       181518.75
         1         1        97            33.2       181518.75
         1         1        98            31.8       181518.75
         1         1        99            29.9       181518.75
         1         1       100            26.7       181518.75
         1         1       101            20.7       181518.75
         1         1       102            19.6       181518.75
         1         1       103            18.7       181518.75
         1         1       104            17.0       181518.75
         1         1       105            15.6       181518.75
         1         1       106            15.0       181518.75
         1         1       107            13.9       181518.75
         1         1       108            13.3       181518.75
         1         1       109            12.7       181518.75
         1         1       110            12.5       181518.75
         1         1       111            12.5       181518.75
         1         1       112            13.1       181518.75
         1         1       113            13.6       181518.75
         1         1       114            13.6       181518.75
         1         1       115            13.5       181518.75
         1         1       116            13.8       181518.75
         1         1       117            14.4       181518.75
         1         1       118            14.9       181518.75
         1         1       119            15.8       181518.75
         1         1       120            15.9       181518.75
         1         1       121            15.2       181518.75
         1         1       122            15.8       181518.75
         1         1       123            16.1       181518.75
         1         1       124            15.7       181518.75
         1         1       125            15.2       181518.75
         1         1       126            14.0       181518.75
         1         1       127            13.1       181518.75
         1         1       128            12.2       181518.75
         1         1       129            11.0       181518.75
         1         1       130            10.5       181518.75
         1         1       131            10.0       181518.75
         1         1       132             8.8       181518.75
         1         1       133            9.39       181518.75
         1         1       134            9.18       181518.75
         1         1       135            7.69       181518.75
         1         1       136            5.65       181518.75
         1         1       137            5.26       181518.75
         1         1       138            5.15       181518.75
         1         1       139            5.32       181518.75
         1         1       140            5.53       181518.75
         1         1       141            5.38       181518.75
         1         1       142            5.51       181518.75
         1         1       143            5.46       181518.75
         1         1       144            5.59       181518.75
         1         1       145            5.34       181518.75
         1         1       146            5.36       181518.75
         1         1       147             5.4       181518.75
         1         1       148            5.34       181518.75
         1         1       149            5.17       181518.75
         1         1       150            5.09       181518.75
         1         1       151            4.96       181518.75
         1         1       152            4.84       181518.75
         1         1       153            4.76       181518.75
         1         1       154            4.73       181518.75
         1         1       155            4.78       181518.75
         1         1       156            4.69       181518.75
         1         1       157             4.8       181518.75
         1         1       158             4.8       181518.75
         1         1       159            4.84       181518.75
         1         1       160            4.75       181518.75
         1         1       161            4.73       181518.75
         1         1       162            4.71       181518.75
         1         1       163            4.92       181518.75
         1         1       164            4.92       181518.75
         1         1       165            4.84       181518.75
         1         1       166            4.88       181518.75
         1         1       167            4.94       181518.75
         1         1       168            4.69       181518.75
         1         1       169            4.67       181518.75
         1         1       170            4.78       181518.75
         1         1       171            4.63       181518.75
         1         1       172            4.67       181518.75
         1         1       173            4.65       181518.75
         1         1       174            4.71       181518.75
         1         2         1            8.15       181518.75
         1         2         2             8.1       181518.75
         1         2         3            8.77       181518.75
         1         2         4            7.34       181518.75
         1         2         5            7.03       181518.75
         1         2         6            6.53       181518.75
         1         2         7            6.46       181518.75
         1         2         8            5.65       181518.75
         1         2         9            5.98       181518.75
         1         2        10            5.61       181518.75
         1         2        11            8.19       181518.75
         1         2        12            4.41       181518.75
         1         2        13            4.41       181518.75
         1         2        14             4.4       181518.75
         1         2        15             4.4       181518.75
         1         2        16             3.4       181518.75
         1         2        17             3.4       181518.75
         1         2        18             3.4       181518.75
         1         2        19            3.91       181518.75
         1         2        20            5.82       181518.75
         1         2        21            7.88       181518.75
         1         2        22           10.59       181518.75
         1         2        23           12.27       181518.75
         1         2        24           12.81       181518.75
         1         2        25            13.0       181518.75
         1         2        26           14.27       181518.75
         1         2        27           14.93       181518.75
         1         2        28           15.65       181518.75
         1         2        29            15.8       181518.75
         1         2        30           16.39       181518.75
         1         2        31            16.2       181518.75
         1         2        32           16.07       181518.75
         1         2        33           16.45       181518.75
         1         2        34           15.97       181518.75
         1         2        35           16.77       181518.75
         1         2        36           17.72       181518.75
         1         2        37           18.52       181518.75
         1         2        38           19.03       181518.75
         1         2        39           19.17       181518.75
         1         2        40           19.32       181518.75
         1         2        41           18.57       181518.75
         1         2        42            17.6       181518.75
         1         2        43           16.32       181518.75
         1         2        44           15.07       181518.75
         1         2        45           13.76       181518.75
         1         2        46           15.71       181518.75
         1         2        47           16.37       181518.75
         1         2        48           16.54       181518.75
         1         2        49           17.32       181518.75
         1         2        50           17.95       181518.75
         1         2        51           17.98       181518.75
         1         2        52           18.39       181518.75
         1         2        53           18.97       181518.75
         1         2        54           19.29       181518.75
         1         2        55           20.04       181518.75
         1         2        56           20.73       181518.75
         1         2        57           20.25       181518.75
         1         2        58           18.89       181518.75
         1         2        59           18.82       181518.75
         1         2        60           15.61       181518.75
         1         2        61           12.51       181518.75
         1         2        62            9.81       181518.75
         1         2        63            7.51       181518.75
         1         2        64            7.13       181518.75
         1         2        65            7.07       181518.75
         1         2        66            7.05       181518.75
         1         2        67            7.34       181518.75
         1         2        68            6.94       181518.75
         1         2        69            8.18       181518.75
         1         2        70           13.59       181518.75
         1         2        71           21.91       181518.75
         1         2        72            31.0       181518.75
         1         2        73            35.2       181518.75
         1         2        74            37.2       181518.75
         1         2        75            37.5       181518.75
         1         2        76            37.6       181518.75
         1         2        77            37.2       181518.75
         1         2        78            37.2       181518.75
         1         2        79            37.8       181518.75
         1         2        80            37.9       181518.75
         1         2        81            39.4       181518.75
         1         2        82            40.6       181518.75
         1         2        83            39.6       181518.75
         1         2        84            38.8       181518.75
         1         2        85            38.8       181518.75
         1         2        86            38.1       181518.75
         1         2        87            37.8       181518.75
         1         2        88            37.4       181518.75
         1         2        89            35.7       181518.75
         1         2        90            31.9       181518.75
         1         2        91            31.3       181518.75
         1         2        92            35.0       181518.75
         1         2        93            34.9       181518.75
         1         2        94            32.5       181518.75
         1         2        95            29.1       181518.75
         1         2        96            26.0       181518.75
         1         2        97            27.1       181518.75
         1         2        98            25.8       181518.75
         1         2        99            23.4       181518.75
         1         2       100            21.3       181518.75
         1         2       101            16.9       181518.75
         1         2       102            15.9       181518.75
         1         2       103            16.2       181518.75
         1         2       104            14.7       181518.75
         1         2       105            13.5       181518.75
         1         2       106            12.9       181518.75
         1         2       107            13.0       181518.75
         1         2       108            12.6       181518.75
         1         2       109            12.7       181518.75
         1         2       110            13.6       181518.75
         1         2       111            14.6       181518.75
         1         2       112            15.3       181518.75
         1         2       113            15.1       181518.75
         1         2       114            14.7       181518.75
         1         2       115            14.5       181518.75
         1         2       116            14.6       181518.75
         1         2       117            15.1       181518.75
         1         2       118            15.1       181518.75
         1         2       119            15.6       181518.75
         1         2       120            15.8       181518.75
         1         2       121            15.3       181518.75
         1         2       122            15.5       181518.75
         1         2       123            15.7       181518.75
         1         2       124            15.5       181518.75
         1         2       125            15.2       181518.75
         1         2       126            15.0       181518.75
         1         2       127            13.7       181518.75
         1         2       128            13.1       181518.75
         1         2       129            12.9       181518.75
         1         2       130            11.3       181518.75
         1         2       131           10.11       181518.75
         1         2       132            8.43       181518.75
         1         2       133            7.59       181518.75
         1         2       134             7.0       181518.75
         1         2       135            5.94       181518.75
         1         2       136            5.28       181518.75
         1         2       137             5.3       181518.75
         1         2       138            5.44       181518.75
         1         2       139            5.53       181518.75
         1         2       140            5.55       181518.75
         1         2       141            5.65       181518.75
         1         2       142            5.57       181518.75
         1         2       143            5.59       181518.75
         1         2       144            5.61       181518.75
         1         2       145            5.53       181518.75
         1         2       146            5.48       181518.75
         1         2       147             5.4       181518.75
         1         2       148            5.38       181518.75
         1         2       149            5.32       181518.75
         1         2       150            5.36       181518.75
         1         2       151            5.26       181518.75
         1         2       152            5.32       181518.75
         1         2       153            5.01       181518.75
         1         2       154            4.94       181518.75
         1         2       155            4.96       181518.75
         1         2       156            4.63       181518.75
         1         2       157             5.0       181518.75
         1         2       158            4.96       181518.75
         1         2       159            5.05       181518.75
         1         2       160            5.13       181518.75
         1         2       161            4.94       181518.75
         1         2       162            5.05       181518.75
         1         2       163            5.07       181518.75
         1         2       164            4.96       181518.75
         1         2       165            4.98       181518.75
         1         2       166            4.92       181518.75
         1         2       167            4.73       181518.75
         1         2       168            4.71       181518.75
         1         2       169            4.69       181518.75
         1         2       170            4.78       181518.75
         1         2       171            4.63       181518.75
         1         2       172            4.73       181518.75
         1         2       173            4.78       181518.75
         1         2       174            4.73       181518.75
         1         3         1             7.9       181518.75
         1         3         2            7.36       181518.75
         1         3         3            7.51       181518.75
         1         3         4            7.09       181518.75
         1         3         5            7.38       181518.75
         1         3         6            6.55       181518.75
         1         3         7            6.67       181518.75
         1         3         8             6.3       181518.75
         1         3         9            6.03       181518.75
         1         3        10            5.48       181518.75
         1         3        11             7.3       181518.75
         1         3        12             4.4       181518.75
         1         3        13            4.41       181518.75
         1         3        14            4.41       181518.75
         1         3        15            4.41       181518.75
         1         3        16            3.41       181518.75
         1         3        17            3.41       181518.75
         1         3        18            2.91       181518.75
         1         3        19             4.4       181518.75
         1         3        20            7.17       181518.75
         1         3        21            8.88       181518.75
         1         3        22           13.28       181518.75
         1         3        23            15.6       181518.75
         1         3        24           14.44       181518.75
         1         3        25           14.34       181518.75
         1         3        26           13.93       181518.75
         1         3        27           15.09       181518.75
         1         3        28           15.14       181518.75
         1         3        29           15.52       181518.75
         1         3        30           15.46       181518.75
         1         3        31           16.23       181518.75
         1         3        32           16.25       181518.75
         1         3        33           16.64       181518.75
         1         3        34           16.38       181518.75
         1         3        35           17.04       181518.75
         1         3        36           17.71       181518.75
         1         3        37           17.87       181518.75
         1         3        38           18.42       181518.75
         1         3        39           19.26       181518.75
         1         3        40           19.48       181518.75
         1         3        41           19.14       181518.75
         1         3        42           18.62       181518.75
         1         3        43           18.01       181518.75
         1         3        44           16.36       181518.75
         1         3        45           13.28       181518.75
         1         3        46           14.44       181518.75
         1         3        47           16.03       181518.75
         1         3        48           19.04       181518.75
         1         3        49           19.72       181518.75
         1         3        50           19.77       181518.75
         1         3        51           19.65       181518.75
         1         3        52            20.2       181518.75
         1         3        53           19.94       181518.75
         1         3        54           20.07       181518.75
         1         3        55            20.4       181518.75
         1         3        56           20.54       181518.75
         1         3        57           19.89       181518.75
         1         3        58           18.86       181518.75
         1         3        59           19.21       181518.75
         1         3        60           17.35       181518.75
         1         3        61           13.97       181518.75
         1         3        62            8.02       181518.75
         1         3        63            6.57       181518.75
         1         3        64            6.03       181518.75
         1         3        65            6.76       181518.75
         1         3        66             6.8       181518.75
         1         3        67            8.44       181518.75
         1         3        68           13.31       181518.75
         1         3        69           15.64       181518.75
         1         3        70           28.84       181518.75
         1         3        71            28.7       181518.75
         1         3        72           30.33       181518.75
         1         3        73            36.8       181518.75
         1         3        74            37.6       181518.75
         1         3        75            37.5       181518.75
         1         3        76            38.0       181518.75
         1         3        77            37.7       181518.75
         1         3        78            37.9       181518.75
         1         3        79            38.1       181518.75
         1         3        80            37.6       181518.75
         1         3        81            37.9       181518.75
         1         3        82            38.4       181518.75
         1         3        83            38.7       181518.75
         1         3        84            37.9       181518.75
         1         3        85            37.1       181518.75
         1         3        86            36.8       181518.75
         1         3        87            36.6       181518.75
         1         3        88            37.0       181518.75
         1         3        89            35.3       181518.75
         1         3        90            30.4       181518.75
         1         3        91            30.7       181518.75
         1         3        92            32.6       181518.75
         1         3        93            31.2       181518.75
         1         3        94            27.9       181518.75
         1         3        95            24.8       181518.75
         1         3        96            22.6       181518.75
         1         3        97            21.4       181518.75
         1         3        98            20.9       181518.75
         1         3        99            19.3       181518.75
         1         3       100            17.6       181518.75
         1         3       101            16.4       181518.75
         1         3       102            14.9       181518.75
         1         3       103            14.8       181518.75
         1         3       104            13.7       181518.75
         1         3       105            13.0       181518.75
         1         3       106            12.8       181518.75
         1         3       107            12.7       181518.75
         1         3       108            12.7       181518.75
         1         3       109            13.3       181518.75
         1         3       110            15.4       181518.75
         1         3       111            16.0       181518.75
         1         3       112            16.2       181518.75
         1         3       113            15.4       181518.75
         1         3       114            15.3       181518.75
         1         3       115            15.5       181518.75
         1         3       116            15.5       181518.75
         1         3       117            15.6       181518.75
         1         3       118            15.4       181518.75
         1         3       119            15.5       181518.75
         1         3       120            15.3       181518.75
         1         3       121            15.0       181518.75
         1         3       122            15.0       181518.75
         1         3       123            15.1       181518.75
         1         3       124            15.4       181518.75
         1         3       125            15.4       181518.75
         1         3       126            15.2       181518.75